@<TRIPOS>MOLECULE
LIG
   69    73     1     0     0
SMALL
bcc


@<TRIPOS>ATOM
      1 C1          30.7630    15.3340    34.6360 c3         1 LIG       0.106700
      2 O1          31.8850    14.4760    34.4190 os         1 LIG      -0.314900
      3 C2          32.5650    14.8410    33.2880 ca         1 LIG       0.189100
      4 C3          31.9090    14.7040    32.0590 ca         1 LIG      -0.195000
      5 C4          32.5300    15.1190    30.8840 ca         1 LIG      -0.054000
      6 C5          33.7970    15.6920    30.9380 ca         1 LIG      -0.116000
      7 C6          34.4460    15.8530    32.1720 ca         1 LIG      -0.086600
      8 C7          33.8390    15.4280    33.3560 ca         1 LIG      -0.193600
      9 C8          34.5610    15.6010    34.6390 c          1 LIG       0.642300
     10 O2          34.1220    15.1750    35.7040 o          1 LIG      -0.628100
     11 C9          35.8670    16.3020    34.6700 ca         1 LIG      -0.194600
     12 C10         36.5240    16.5400    35.8960 ca         1 LIG       0.127100
     13 O3          35.9810    16.1000    37.0820 oh         1 LIG      -0.527100
     14 C11         37.7550    17.2240    35.9580 ca         1 LIG      -0.099300
     15 C12         38.3640    17.6130    34.7450 ca         1 LIG      -0.074300
     16 C13         37.6960    17.3820    33.5280 ca         1 LIG       0.158100
     17 O4          38.3220    17.8220    32.3880 oh         1 LIG      -0.454100
     18 C14         36.4530    16.7320    33.4860 ca         1 LIG      -0.121600
     19 C15         35.7720    16.4950    32.1990 c          1 LIG       0.579300
     20 O5          36.3160    16.8500    31.1590 o          1 LIG      -0.462100
     21 C16         39.7160    18.3090    34.7210 c6         1 LIG      -0.054100
     22 C17         40.5510    18.0960    35.9960 c6         1 LIG       0.083800
     23 O6          41.0060    16.7430    36.0680 oh         1 LIG      -0.592800
     24 C18         41.7640    19.0470    36.0070 c          1 LIG       0.508100
     25 O7          41.7460    20.1510    35.4570 o          1 LIG      -0.516100
     26 C19         43.0110    18.5770    36.7510 c3         1 LIG       0.040400
     27 O8          44.0170    18.1400    35.8500 oh         1 LIG      -0.593800
     28 C20         39.6780    18.4010    37.2080 c6         1 LIG      -0.139400
     29 C21         38.4720    17.4560    37.2850 c6         1 LIG       0.217400
     30 O9          37.5980    17.8420    38.3580 os         1 LIG      -0.442600
     31 C22         37.6070    19.2140    38.7210 c6         1 LIG       0.337900
     32 C23         36.1820    19.7480    38.5760 c6         1 LIG      -0.145400
     33 C24         35.3010    18.9820    39.5420 c6         1 LIG       0.076500
     34 N1          33.8860    19.4630    39.4820 nz         1 LIG      -0.832600
     35 C25         35.8030    19.1360    40.9860 c6         1 LIG       0.095100
     36 O10         34.8990    18.4140    41.8240 oh         1 LIG      -0.608800
     37 C26         37.2620    18.6600    41.0400 c6         1 LIG       0.126100
     38 C27         37.8950    18.9110    42.4040 c3         1 LIG      -0.102100
     39 O11         38.0380    19.3840    40.0730 os         1 LIG      -0.393600
     40 H1          30.6000    15.4590    35.7170 h1         1 LIG       0.056700
     41 H2          30.9580    16.3150    34.1790 h1         1 LIG       0.056700
     42 H3          29.8670    14.8890    34.1790 h1         1 LIG       0.056700
     43 H4          30.9000    14.2670    32.0220 ha         1 LIG       0.157000
     44 H5          32.0210    14.9940    29.9170 ha         1 LIG       0.158000
     45 H6          34.2910    16.0200    30.0110 ha         1 LIG       0.173000
     46 H7          36.7220    15.8550    37.6860 ho         1 LIG       0.444000
     47 H8          38.5770    18.7680    32.5020 ho         1 LIG       0.436000
     48 H9          40.2880    17.9240    33.8640 hc         1 LIG       0.091700
     49 H10         39.5180    19.3880    34.6470 hc         1 LIG       0.091700
     50 H11         40.6270    16.3310    36.8680 ho         1 LIG       0.432000
     51 H12         43.4050    19.4100    37.3510 h1         1 LIG       0.090200
     52 H13         42.7310    17.7300    37.3950 h1         1 LIG       0.090200
     53 H14         43.7850    18.5060    34.9730 ho         1 LIG       0.424000
     54 H15         40.2810    18.2860    38.1210 hc         1 LIG       0.080700
     55 H16         39.3040    19.4310    37.1130 hc         1 LIG       0.080700
     56 H17         38.8700    16.4580    37.5210 h1         1 LIG       0.106700
     57 H18         38.3050    19.7600    38.0690 h2         1 LIG       0.110700
     58 H19         36.1580    20.8210    38.8180 hc         1 LIG       0.084200
     59 H20         35.8250    19.6170    37.5440 hc         1 LIG       0.084200
     60 H21         35.3440    17.9240    39.2430 hx         1 LIG       0.149700
     61 H22         33.4130    19.3730    40.3890 hn         1 LIG       0.466800
     62 H23         33.9230    20.4680    39.2430 hn         1 LIG       0.466800
     63 H24         33.3280    18.9980    38.7590 hn         1 LIG       0.466800
     64 H25         35.8140    20.1750    41.3470 h1         1 LIG       0.096700
     65 H26         34.5830    17.6280    41.3350 ho         1 LIG       0.435000
     66 H27         37.2560    17.5790    40.8350 h1         1 LIG       0.069700
     67 H28         37.1850    18.6290    43.1950 hc         1 LIG       0.065033
     68 H29         38.8100    18.3080    42.5000 hc         1 LIG       0.065033
     69 H30         38.1480    19.9770    42.5000 hc         1 LIG       0.065033
@<TRIPOS>BOND
     1     1     2 1   
     2     2     3 1   
     3     3     4 ar  
     4     4     5 ar  
     5     5     6 ar  
     6     6     7 ar  
     7     7     8 ar  
     8     8     9 1   
     9     9    10 2   
    10     9    11 1   
    11    11    12 ar  
    12    12    13 1   
    13    12    14 ar  
    14    14    15 ar  
    15    15    16 ar  
    16    16    17 1   
    17    16    18 ar  
    18    18    19 1   
    19    19    20 2   
    20    15    21 1   
    21    21    22 1   
    22    22    23 1   
    23    22    24 1   
    24    24    25 2   
    25    24    26 1   
    26    26    27 1   
    27    22    28 1   
    28    28    29 1   
    29    29    30 1   
    30    30    31 1   
    31    31    32 1   
    32    32    33 1   
    33    33    34 1   
    34    33    35 1   
    35    35    36 1   
    36    35    37 1   
    37    37    38 1   
    38    37    39 1   
    39     8     3 ar  
    40    18    11 ar  
    41    39    31 1   
    42    19     7 1   
    43    29    14 1   
    44     1    40 1   
    45     1    41 1   
    46     1    42 1   
    47     4    43 1   
    48     5    44 1   
    49     6    45 1   
    50    13    46 1   
    51    17    47 1   
    52    21    48 1   
    53    21    49 1   
    54    23    50 1   
    55    26    51 1   
    56    26    52 1   
    57    27    53 1   
    58    28    54 1   
    59    28    55 1   
    60    29    56 1   
    61    31    57 1   
    62    32    58 1   
    63    32    59 1   
    64    33    60 1   
    65    34    61 1   
    66    34    62 1   
    67    34    63 1   
    68    35    64 1   
    69    36    65 1   
    70    37    66 1   
    71    38    67 1   
    72    38    68 1   
    73    38    69 1   
@<TRIPOS>SUBSTRUCTURE
     1 LIG         1 TEMP              0 ****  ****    0 ROOT
