@<TRIPOS>MOLECULE
LIG
   37    40     1     0     0
SMALL
bcc


@<TRIPOS>ATOM
      1 O1          40.8380    16.2990    37.5650 o          1 LIG      -0.562500
      2 C1          40.0980    17.1990    37.9510 c          1 LIG       0.740800
      3 O2          40.0410    17.5310    39.2960 os         1 LIG      -0.331200
      4 C2          39.1240    18.4750    39.7820 ca         1 LIG       0.170100
      5 C3          39.0860    18.6580    41.1650 ca         1 LIG      -0.148000
      6 C4          38.1660    19.5480    41.7080 ca         1 LIG      -0.080000
      7 C5          37.2890    20.2340    40.8680 ca         1 LIG      -0.155000
      8 C6          37.3430    20.0400    39.4830 ca         1 LIG      -0.083000
      9 C7          38.2810    19.1640    38.9170 ca         1 LIG      -0.183800
     10 C8          38.4140    18.9170    37.4790 cc         1 LIG       0.221900
     11 O3          37.6510    19.7090    36.6450 oh         1 LIG      -0.461100
     12 C9          39.2560    17.9820    37.0020 cd         1 LIG      -0.245400
     13 C10         39.5180    17.5910    35.5570 c3         1 LIG       0.049000
     14 C11         38.3250    17.2530    34.6980 cc         1 LIG      -0.245400
     15 C12         37.3270    16.4500    35.0960 cd         1 LIG       0.221900
     16 O4          37.3120    15.9200    36.3710 oh         1 LIG      -0.461100
     17 C13         36.2040    16.1420    34.2080 ca         1 LIG      -0.183800
     18 C14         35.1790    15.2370    34.5150 ca         1 LIG      -0.083000
     19 C15         34.1350    15.0080    33.6110 ca         1 LIG      -0.155000
     20 C16         34.1080    15.6710    32.3830 ca         1 LIG      -0.080000
     21 C17         35.1320    16.5530    32.0540 ca         1 LIG      -0.148000
     22 C18         36.1650    16.7690    32.9650 ca         1 LIG       0.170100
     23 O5          37.1940    17.6360    32.5580 os         1 LIG      -0.331200
     24 C19         38.3120    17.8660    33.3480 c          1 LIG       0.740800
     25 O6          39.2290    18.5740    32.9460 o          1 LIG      -0.562500
     26 H1          39.7760    18.1040    41.8180 ha         1 LIG       0.163000
     27 H2          38.1300    19.7100    42.7950 ha         1 LIG       0.144000
     28 H3          36.5520    20.9300    41.2960 ha         1 LIG       0.142000
     29 H4          36.6420    20.5810    38.8310 ha         1 LIG       0.131000
     30 H5          36.8780    20.0120    37.1560 ho         1 LIG       0.429000
     31 H6          40.0410    18.4320    35.0780 hc         1 LIG       0.084700
     32 H7          40.0910    16.6540    35.6200 hc         1 LIG       0.084700
     33 H8          36.3900    15.7150    36.6040 ho         1 LIG       0.429000
     34 H9          35.1950    14.7010    35.4760 ha         1 LIG       0.131000
     35 H10         33.3320    14.3020    33.8700 ha         1 LIG       0.142000
     36 H11         33.2810    15.4970    31.6790 ha         1 LIG       0.144000
     37 H12         35.1270    17.0750    31.0850 ha         1 LIG       0.163000
@<TRIPOS>BOND
     1     1     2 2   
     2     2     3 1   
     3     3     4 1   
     4     4     5 ar  
     5     5     6 ar  
     6     6     7 ar  
     7     7     8 ar  
     8     8     9 ar  
     9     9    10 1   
    10    10    11 1   
    11    10    12 2   
    12    12    13 1   
    13    13    14 1   
    14    14    15 2   
    15    15    16 1   
    16    15    17 1   
    17    17    18 ar  
    18    18    19 ar  
    19    19    20 ar  
    20    20    21 ar  
    21    21    22 ar  
    22    22    23 1   
    23    23    24 1   
    24    24    25 2   
    25    12     2 1   
    26    24    14 1   
    27     9     4 ar  
    28    22    17 ar  
    29     5    26 1   
    30     6    27 1   
    31     7    28 1   
    32     8    29 1   
    33    11    30 1   
    34    13    31 1   
    35    13    32 1   
    36    16    33 1   
    37    18    34 1   
    38    19    35 1   
    39    20    36 1   
    40    21    37 1   
@<TRIPOS>SUBSTRUCTURE
     1 LIG         1 TEMP              0 ****  ****    0 ROOT
