@<TRIPOS>MOLECULE
LIG
   68    72     1     0     0
SMALL
bcc


@<TRIPOS>ATOM
      1 C1          31.8840    12.5550    33.6150 c3         1 LIG       0.106700
      2 O1          31.9660    13.9720    33.5360 os         1 LIG      -0.300900
      3 C2          32.6090    14.5330    32.4660 ca         1 LIG       0.181100
      4 C3          32.1650    14.3880    31.1440 ca         1 LIG      -0.186000
      5 C4          32.8620    14.9760    30.0870 ca         1 LIG      -0.071000
      6 C5          34.0120    15.7130    30.3410 ca         1 LIG      -0.114000
      7 C6          34.4670    15.8660    31.6560 ca         1 LIG      -0.100600
      8 C7          33.7740    15.2880    32.7240 ca         1 LIG      -0.169600
      9 C8          34.2930    15.4990    34.1020 c          1 LIG       0.605300
     10 O2          33.6900    15.1320    35.1070 o          1 LIG      -0.527100
     11 C9          35.5850    16.1910    34.3160 ca         1 LIG      -0.185600
     12 C10         36.1380    16.2960    35.6090 ca         1 LIG       0.181100
     13 O3          35.5130    15.7450    36.7020 oh         1 LIG      -0.505100
     14 C11         37.3570    16.9590    35.8430 ca         1 LIG      -0.087300
     15 C12         38.0280    17.5440    34.7500 ca         1 LIG      -0.042300
     16 C13         37.4700    17.4330    33.4640 ca         1 LIG       0.151100
     17 O4          38.1740    18.0140    32.4380 oh         1 LIG      -0.508100
     18 C14         36.2570    16.7590    33.2440 ca         1 LIG      -0.167600
     19 C15         35.6960    16.6490    31.8870 c          1 LIG       0.597300
     20 O5          36.2670    17.2090    30.9570 o          1 LIG      -0.542100
     21 C16         39.3720    18.2350    34.9050 c6         1 LIG      -0.052100
     22 C17         39.8200    18.4770    36.3530 c6         1 LIG       0.068800
     23 O6          39.2080    19.6740    36.8620 oh         1 LIG      -0.627800
     24 C18         41.3470    18.6900    36.3910 c          1 LIG       0.544100
     25 C19         42.1280    17.9640    37.4590 c3         1 LIG      -0.200100
     26 O7          41.9210    19.4340    35.5930 o          1 LIG      -0.532100
     27 C20         39.4320    17.2800    37.2360 c6         1 LIG      -0.099400
     28 C21         37.9140    17.0560    37.2510 c6         1 LIG       0.219400
     29 O8          37.2630    18.1810    37.8780 os         1 LIG      -0.436600
     30 C22         36.7260    17.8510    39.1590 c6         1 LIG       0.342900
     31 C23         37.6420    18.4470    40.2230 c6         1 LIG      -0.149400
     32 C24         37.5760    19.9710    40.1670 c6         1 LIG       0.085500
     33 N1          38.2830    20.5090    41.3800 nz         1 LIG      -0.831600
     34 C25         36.1240    20.4720    40.2370 c6         1 LIG       0.095100
     35 O9          35.6910    20.2130    41.5900 oh         1 LIG      -0.612800
     36 C26         35.2820    19.7590    39.1700 c6         1 LIG       0.122100
     37 C27         33.8030    20.1200    39.2420 c3         1 LIG      -0.098100
     38 O10         35.4010    18.3440    39.3370 os         1 LIG      -0.406600
     39 H1          31.8660    12.2470    34.6710 h1         1 LIG       0.055033
     40 H2          30.9650    12.2130    33.1180 h1         1 LIG       0.055033
     41 H3          32.7580    12.1090    33.1180 h1         1 LIG       0.055033
     42 H4          31.2560    13.8040    30.9370 ha         1 LIG       0.155000
     43 H5          32.5010    14.8560    29.0550 ha         1 LIG       0.153000
     44 H6          34.5640    16.1760    29.5100 ha         1 LIG       0.165000
     45 H7          35.2120    14.8350    36.4650 ho         1 LIG       0.467000
     46 H8          39.0960    17.6640    32.4430 ho         1 LIG       0.467000
     47 H9          40.1330    17.6120    34.4130 hc         1 LIG       0.085200
     48 H10         39.2570    19.2300    34.4510 hc         1 LIG       0.085200
     49 H11         39.2520    20.3270    36.1380 ho         1 LIG       0.418000
     50 H12         41.7800    18.2870    38.4510 hc         1 LIG       0.080033
     51 H13         41.9750    16.8800    37.3520 hc         1 LIG       0.080033
     52 H14         43.1980    18.1960    37.3520 hc         1 LIG       0.080033
     53 H15         39.9220    16.3760    36.8460 hc         1 LIG       0.068200
     54 H16         39.7580    17.4920    38.2650 hc         1 LIG       0.068200
     55 H17         37.7280    16.1200    37.7980 h1         1 LIG       0.085700
     56 H18         36.6730    16.7560    39.2440 h2         1 LIG       0.108700
     57 H19         37.3190    18.1040    41.2170 hc         1 LIG       0.084200
     58 H20         38.6760    18.1210    40.0360 hc         1 LIG       0.084200
     59 H21         38.0330    20.3050    39.2240 hx         1 LIG       0.153700
     60 H22         38.2360    21.5430    41.3170 hn         1 LIG       0.459467
     61 H23         37.8650    20.2130    42.2700 hn         1 LIG       0.459467
     62 H24         39.2820    20.2710    41.3830 hn         1 LIG       0.459467
     63 H25         36.0180    21.5450    40.0200 h1         1 LIG       0.090700
     64 H26         35.3880    19.2830    41.6420 ho         1 LIG       0.444000
     65 H27         35.6670    20.0870    38.1930 h1         1 LIG       0.093700
     66 H28         33.4950    20.1950    40.2950 hc         1 LIG       0.065367
     67 H29         33.6360    21.0850    38.7410 hc         1 LIG       0.065367
     68 H30         33.2100    19.3400    38.7410 hc         1 LIG       0.065367
@<TRIPOS>BOND
     1     1     2 1   
     2     2     3 1   
     3     3     4 ar  
     4     4     5 ar  
     5     5     6 ar  
     6     6     7 ar  
     7     7     8 ar  
     8     8     9 1   
     9     9    10 2   
    10     9    11 1   
    11    11    12 ar  
    12    12    13 1   
    13    12    14 ar  
    14    14    15 ar  
    15    15    16 ar  
    16    16    17 1   
    17    16    18 ar  
    18    18    19 1   
    19    19    20 2   
    20    15    21 1   
    21    21    22 1   
    22    22    23 1   
    23    22    24 1   
    24    24    25 1   
    25    24    26 2   
    26    22    27 1   
    27    27    28 1   
    28    28    29 1   
    29    29    30 1   
    30    30    31 1   
    31    31    32 1   
    32    32    33 1   
    33    32    34 1   
    34    34    35 1   
    35    34    36 1   
    36    36    37 1   
    37    36    38 1   
    38     8     3 ar  
    39    18    11 ar  
    40    38    30 1   
    41    19     7 1   
    42    28    14 1   
    43     1    39 1   
    44     1    40 1   
    45     1    41 1   
    46     4    42 1   
    47     5    43 1   
    48     6    44 1   
    49    13    45 1   
    50    17    46 1   
    51    21    47 1   
    52    21    48 1   
    53    23    49 1   
    54    25    50 1   
    55    25    51 1   
    56    25    52 1   
    57    27    53 1   
    58    27    54 1   
    59    28    55 1   
    60    30    56 1   
    61    31    57 1   
    62    31    58 1   
    63    32    59 1   
    64    33    60 1   
    65    33    61 1   
    66    33    62 1   
    67    34    63 1   
    68    35    64 1   
    69    36    65 1   
    70    37    66 1   
    71    37    67 1   
    72    37    68 1   
@<TRIPOS>SUBSTRUCTURE
     1 LIG         1 TEMP              0 ****  ****    0 ROOT
