@<TRIPOS>MOLECULE
LIG
   60    63     1     0     0
SMALL
bcc


@<TRIPOS>ATOM
      1 C1          38.0060    20.2300    42.9800 c3         1 LIG       0.114700
      2 O1          36.8950    20.0420    42.1150 os         1 LIG      -0.315900
      3 C2          37.1410    19.5420    40.8620 ca         1 LIG       0.127100
      4 C3          38.3710    19.0250    40.4440 ca         1 LIG      -0.204000
      5 C4          38.5320    18.5300    39.1440 ca         1 LIG      -0.096000
      6 C5          37.4710    18.5530    38.2300 ca         1 LIG      -0.085300
      7 C6          37.6430    17.9770    36.8400 c3         1 LIG       0.164100
      8 N1          36.7970    16.8140    36.6240 n2         1 LIG      -0.610900
      9 C7          36.4350    16.4250    35.4600 cc         1 LIG       0.718600
     10 N2          35.5010    15.4040    35.5010 nc         1 LIG      -0.724000
     11 C8          34.7060    15.2270    34.4840 cd         1 LIG       0.808100
     12 N3          33.6980    14.2910    34.5100 nh         1 LIG      -0.695600
     13 C9          33.4070    13.4980    33.3090 c5         1 LIG       0.173800
     14 C10         32.1700    12.6890    33.6760 c5         1 LIG      -0.089400
     15 C11         31.4220    13.6300    34.6030 c5         1 LIG      -0.088400
     16 C12         32.5420    14.2840    35.4200 c5         1 LIG       0.155500
     17 C13         32.8600    13.4850    36.6940 c3         1 LIG       0.141400
     18 O2          33.8090    14.1830    37.5020 oh         1 LIG      -0.595800
     19 N4          34.8360    15.9520    33.3340 na         1 LIG      -0.733000
     20 C14         35.9560    16.7040    33.1220 cd         1 LIG       0.137000
     21 C15         36.8460    16.9140    34.1040 cc         1 LIG      -0.381800
     22 C16         38.1100    17.5820    33.7370 c          1 LIG       0.676300
     23 O3          38.2570    18.1500    32.6600 o          1 LIG      -0.584100
     24 N5          39.1100    17.4590    34.6590 ns         1 LIG      -0.544900
     25 C17         40.4380    18.0040    34.4360 c3         1 LIG       0.041700
     26 C18         41.2850    18.0050    35.6930 ca         1 LIG       0.613300
     27 N6          42.4270    18.7200    35.6820 nb         1 LIG      -0.700500
     28 C19         43.1520    18.7050    36.8170 ca         1 LIG       0.434200
     29 C20         42.7860    18.0110    37.9450 ca         1 LIG      -0.366600
     30 C21         41.6100    17.3060    37.8540 ca         1 LIG       0.434200
     31 N7          40.8450    17.2790    36.7470 nb         1 LIG      -0.700500
     32 C22         36.2340    19.0580    38.6540 ca         1 LIG      -0.069000
     33 C23         36.0720    19.5510    39.9530 ca         1 LIG      -0.013600
     34 Cl1         34.5150    20.1630    40.3980 cl         1 LIG      -0.081400
     35 H1          37.6700    20.1730    44.0260 h1         1 LIG       0.043700
     36 H2          38.7540    19.4460    42.7920 h1         1 LIG       0.043700
     37 H3          38.4540    21.2170    42.7920 h1         1 LIG       0.043700
     38 H4          39.2200    19.0070    41.1430 ha         1 LIG       0.134000
     39 H5          39.5040    18.1180    38.8370 ha         1 LIG       0.132000
     40 H6          37.3820    18.7490    36.1010 h1         1 LIG       0.062200
     41 H7          38.6910    17.6600    36.7310 h1         1 LIG       0.062200
     42 H8          33.2020    14.1540    32.4500 h1         1 LIG       0.048200
     43 H9          34.2530    12.8590    33.0150 h1         1 LIG       0.048200
     44 H10         31.5720    12.4520    32.7840 hc         1 LIG       0.055700
     45 H11         32.4030    11.7170    34.1350 hc         1 LIG       0.055700
     46 H12         30.8600    14.3830    34.0310 hc         1 LIG       0.057200
     47 H13         30.6770    13.1160    35.2280 hc         1 LIG       0.057200
     48 H14         32.2620    15.2900    35.7650 h1         1 LIG       0.080700
     49 H15         31.9340    13.3380    37.2690 h1         1 LIG       0.047700
     50 H16         33.2870    12.5130    36.4060 h1         1 LIG       0.047700
     51 H17         33.3650    14.3060    38.3670 ho         1 LIG       0.419000
     52 H18         34.1920    15.8180    32.5610 hn         1 LIG       0.459800
     53 H19         36.1320    17.1450    32.1300 h4         1 LIG       0.161000
     54 H20         38.9900    16.9180    35.5120 hn         1 LIG       0.312500
     55 H21         40.9440    17.3980    33.6700 h1         1 LIG       0.092200
     56 H22         40.3200    19.0490    34.1120 h1         1 LIG       0.092200
     57 H23         44.0890    19.2800    36.8420 h4         1 LIG       0.031100
     58 H24         43.3950    18.0190    38.8610 ha         1 LIG       0.157000
     59 H25         41.2760    16.7340    38.7320 h4         1 LIG       0.031100
     60 H26         35.3820    19.0670    37.9580 ha         1 LIG       0.163000
@<TRIPOS>BOND
     1     1     2 1   
     2     2     3 1   
     3     3     4 ar  
     4     4     5 ar  
     5     5     6 ar  
     6     6     7 1   
     7     7     8 1   
     8     8     9 2   
     9     9    10 1   
    10    10    11 2   
    11    11    12 1   
    12    12    13 1   
    13    13    14 1   
    14    14    15 1   
    15    15    16 1   
    16    16    17 1   
    17    17    18 1   
    18    11    19 1   
    19    19    20 1   
    20    20    21 2   
    21    21    22 1   
    22    22    23 2   
    23    22    24 1   
    24    24    25 1   
    25    25    26 1   
    26    26    27 ar  
    27    27    28 ar  
    28    28    29 ar  
    29    29    30 ar  
    30    30    31 ar  
    31     6    32 ar  
    32    32    33 ar  
    33    33    34 1   
    34    33     3 ar  
    35    21     9 1   
    36    31    26 ar  
    37    16    12 1   
    38     1    35 1   
    39     1    36 1   
    40     1    37 1   
    41     4    38 1   
    42     5    39 1   
    43     7    40 1   
    44     7    41 1   
    45    13    42 1   
    46    13    43 1   
    47    14    44 1   
    48    14    45 1   
    49    15    46 1   
    50    15    47 1   
    51    16    48 1   
    52    17    49 1   
    53    17    50 1   
    54    18    51 1   
    55    19    52 1   
    56    20    53 1   
    57    24    54 1   
    58    25    55 1   
    59    25    56 1   
    60    28    57 1   
    61    29    58 1   
    62    30    59 1   
    63    32    60 1   
@<TRIPOS>SUBSTRUCTURE
     1 LIG         1 TEMP              0 ****  ****    0 ROOT
