@<TRIPOS>MOLECULE
LIG
   46    49     1     0     0
SMALL
bcc


@<TRIPOS>ATOM
      1 C1          43.9840    19.8170    35.7560 c3         1 LIG      -0.127100
      2 C2          43.2840    18.6280    36.3850 c3         1 LIG       0.135400
      3 O1          42.1810    18.2080    35.5720 os         1 LIG      -0.409900
      4 C3          40.9690    18.7450    35.8730 c          1 LIG       0.641100
      5 O2          40.6870    19.9390    35.7840 o          1 LIG      -0.579000
      6 C4          39.9060    17.6910    36.1850 c3         1 LIG       0.026700
      7 C5          39.4800    18.0420    37.6070 cc         1 LIG      -0.317900
      8 C6          38.3980    18.7970    37.8820 cd         1 LIG       0.246900
      9 O3          37.5060    19.2510    36.9280 oh         1 LIG      -0.495100
     10 C7          38.0770    19.1880    39.2540 ca         1 LIG      -0.189800
     11 C8          36.9990    20.0160    39.5880 ca         1 LIG      -0.081000
     12 C9          36.7490    20.3570    40.9220 ca         1 LIG      -0.153000
     13 C10         37.5740    19.8730    41.9360 ca         1 LIG      -0.075000
     14 C11         38.6500    19.0490    41.6180 ca         1 LIG      -0.146000
     15 C12         38.8840    18.7200    40.2830 ca         1 LIG       0.176100
     16 O4          39.9730    17.8770    40.0160 os         1 LIG      -0.322200
     17 C13         40.2940    17.4880    38.7230 c          1 LIG       0.734800
     18 O5          41.2120    16.6970    38.5270 o          1 LIG      -0.547500
     19 C14         38.8340    17.4270    35.1440 cc         1 LIG      -0.317900
     20 C15         38.7930    17.9120    33.8890 cd         1 LIG       0.383200
     21 O6          39.8260    18.6880    33.4150 oh         1 LIG      -0.473100
     22 O7          37.7920    17.6640    32.9690 os         1 LIG      -0.212200
     23 C16         36.7150    16.9130    33.3520 ca         1 LIG       0.135100
     24 C17         35.6700    16.7720    32.4390 ca         1 LIG      -0.151000
     25 C18         34.5540    16.0010    32.7740 ca         1 LIG      -0.082000
     26 C19         34.4880    15.3690    34.0180 ca         1 LIG      -0.161000
     27 C20         35.5360    15.5100    34.9280 ca         1 LIG      -0.048000
     28 C21         36.6470    16.2880    34.5880 ca         1 LIG      -0.206600
     29 C22         37.7720    16.4490    35.5130 c          1 LIG       0.608900
     30 O8          37.8350    15.7810    36.5390 o          1 LIG      -0.551100
     31 H1          44.3710    20.4750    36.5480 hc         1 LIG       0.050033
     32 H2          44.8180    19.4630    35.1320 hc         1 LIG       0.050033
     33 H3          43.2700    20.3750    35.1320 hc         1 LIG       0.050033
     34 H4          43.9980    17.7970    36.4830 h1         1 LIG       0.066200
     35 H5          42.9050    18.9210    37.3750 h1         1 LIG       0.066200
     36 H6          40.3050    16.6680    36.1270 hc         1 LIG       0.150700
     37 H7          36.6080    19.3220    37.3020 ho         1 LIG       0.443000
     38 H8          36.3420    20.4020    38.7950 ha         1 LIG       0.130000
     39 H9          35.8990    21.0090    41.1710 ha         1 LIG       0.145000
     40 H10         37.3750    20.1410    42.9840 ha         1 LIG       0.146000
     41 H11         39.3080    18.6620    42.4100 ha         1 LIG       0.166000
     42 H12         40.6350    18.2220    33.6930 ho         1 LIG       0.489000
     43 H13         35.7240    17.2670    31.4580 ha         1 LIG       0.158000
     44 H14         33.7270    15.8920    32.0570 ha         1 LIG       0.141000
     45 H15         33.6100    14.7600    34.2800 ha         1 LIG       0.143000
     46 H16         35.4890    15.0120    35.9080 ha         1 LIG       0.165000
@<TRIPOS>BOND
     1     1     2 1   
     2     2     3 1   
     3     3     4 1   
     4     4     5 2   
     5     4     6 1   
     6     6     7 1   
     7     7     8 2   
     8     8     9 1   
     9     8    10 1   
    10    10    11 ar  
    11    11    12 ar  
    12    12    13 ar  
    13    13    14 ar  
    14    14    15 ar  
    15    15    16 1   
    16    16    17 1   
    17    17    18 2   
    18     6    19 1   
    19    19    20 2   
    20    20    21 1   
    21    20    22 1   
    22    22    23 1   
    23    23    24 ar  
    24    24    25 ar  
    25    25    26 ar  
    26    26    27 ar  
    27    27    28 ar  
    28    28    29 1   
    29    29    30 2   
    30    17     7 1   
    31    29    19 1   
    32    15    10 ar  
    33    28    23 ar  
    34     1    31 1   
    35     1    32 1   
    36     1    33 1   
    37     2    34 1   
    38     2    35 1   
    39     6    36 1   
    40     9    37 1   
    41    11    38 1   
    42    12    39 1   
    43    13    40 1   
    44    14    41 1   
    45    21    42 1   
    46    24    43 1   
    47    25    44 1   
    48    26    45 1   
    49    27    46 1   
@<TRIPOS>SUBSTRUCTURE
     1 LIG         1 TEMP              0 ****  ****    0 ROOT
